NOVO24/1726523/Vaos.dss
! ==========================================================
! VAOS DE SAIDA — barra de MT da SE -> cabeceira do alimentador
! Derivado de CTMT.BARR e CTMT.UNI_TR_AT: a BDGD nao modela o
! arranjo interno da subestacao, so o vinculo logico.
! Cada vao e o disjuntor de saida do alimentador.
! ==========================================================
New Line.VAO_AYN13 phases=3 Bus1=193900302.1.2.3 Bus2=segm_2744218426.1.2.3 Switch=y r1=0.0001 r0=0.0001 x1=0 x0=0 c1=0 c0=0
New Monitor.M_AYN13 element=Line.VAO_AYN13 terminal=1 mode=1 ppolar=no
New Line.VAO_AYN11 phases=3 Bus1=193900302.1.2.3 Bus2=segm_2744218450.1.2.3 Switch=y r1=0.0001 r0=0.0001 x1=0 x0=0 c1=0 c0=0
New Monitor.M_AYN11 element=Line.VAO_AYN11 terminal=1 mode=1 ppolar=no
New Line.VAO_AYN10 phases=3 Bus1=193900302.1.2.3 Bus2=segm_2744218493.1.2.3 Switch=y r1=0.0001 r0=0.0001 x1=0 x0=0 c1=0 c0=0
New Monitor.M_AYN10 element=Line.VAO_AYN10 terminal=1 mode=1 ppolar=no
